ieee123_base/ieee123_Power_elem_kVA.txt

CIRCUIT ELEMENT POWER FLOW

(Power Flow into element from indicated Bus)

Power Delivery Elements

  Bus Phase     kW     +j   kvar         kVA         PF

ELEMENT = "Vsource.source"
150     1     -1096.8 +j   -356.4     1153.3       0.9510
150     2      -725.4 +j   -184.8      748.5       0.9690
150     3      -894.0 +j   -226.1      922.1       0.9695
   TERMINAL TOTAL -2716.1 +j   -767.4     2822.4       0.9623
150     0         0.0 +j      0.0        0.0       1.0000
150     0         0.0 +j      0.0        0.0       1.0000
150     0         0.0 +j      0.0        0.0       1.0000
   TERMINAL TOTAL     0.0 +j      0.0        0.0       1.0000

ELEMENT = "Transformer.reg1a"
150      1      1096.8 +j    356.4     1153.3       0.9510
150      2       725.4 +j    184.8      748.5       0.9690
150      3       894.0 +j    226.1      922.1       0.9695
150      0         0.0 +j     -0.0        0.0       1.0000
   TERMINAL TOTAL  2716.1 +j    767.4     2822.4       0.9623
150R     1     -1096.8 +j   -356.4     1153.3       0.9510
150R     2      -725.4 +j   -184.8      748.5       0.9690
150R     3      -894.0 +j   -226.1      922.1       0.9695
150R     0         0.0 +j      0.0        0.0       1.0000
   TERMINAL TOTAL -2716.1 +j   -767.4     2822.4       0.9623

ELEMENT = "Line.l115"
149      1      1096.8 +j    356.4     1153.3       0.9510
149      2       725.4 +j    184.8      748.5       0.9690
149      3       894.0 +j    226.1      922.1       0.9695
   TERMINAL TOTAL  2716.1 +j    767.4     2822.4       0.9623
1        1     -1090.5 +j   -343.7     1143.4       0.9537
1        2      -725.2 +j   -181.4      747.6       0.9701
1        3      -889.8 +j   -220.0      916.6       0.9708
   TERMINAL TOTAL -2705.6 +j   -745.2     2806.3       0.9641

ELEMENT = "Line.l1"
1        2         0.0 +j      0.0        0.0       0.7023
   TERMINAL TOTAL     0.0 +j      0.0        0.0       0.7023

ELEMENT = "Line.l2"
1        3         0.1 +j      0.1        0.1       0.7023
   TERMINAL TOTAL     0.1 +j      0.1        0.1       0.7023

ELEMENT = "Line.l3"
1        1      1060.3 +j    328.6     1110.1       0.9552
1        2       710.1 +j    173.9      731.1       0.9713
1        3       812.3 +j    181.2      832.3       0.9760
   TERMINAL TOTAL  2582.7 +j    683.7     2671.7       0.9667
7        1     -1055.6 +j   -319.7     1102.9       0.9571
7        2      -710.0 +j   -171.2      730.4       0.9721
7        3      -809.9 +j   -177.7      829.1       0.9768
   TERMINAL TOTAL -2575.5 +j   -668.6     2660.9       0.9679

ELEMENT = "Line.l4"
3        3         0.0 +j      0.0        0.0       0.7023
   TERMINAL TOTAL     0.0 +j      0.0        0.0       0.7023

ELEMENT = "Line.l5"
3        3         0.0 +j      0.0        0.1       0.7023
   TERMINAL TOTAL     0.0 +j      0.0        0.1       0.7023

ELEMENT = "Line.l6"
5        3         0.0 +j      0.0        0.0       0.7023
   TERMINAL TOTAL     0.0 +j      0.0        0.0       0.7023

ELEMENT = "Line.l7"
7        1      1040.5 +j    312.1     1086.3       0.9578
7        2       710.0 +j    171.2      730.4       0.9721
7        3       809.9 +j    177.7      829.1       0.9768
   TERMINAL TOTAL  2560.4 +j    661.0     2644.4       0.9683
8        1     -1037.5 +j   -306.3     1081.7       0.9591
8        2      -710.0 +j   -169.5      729.9       0.9727
8        3      -808.3 +j   -175.3      827.1       0.9773
   TERMINAL TOTAL -2555.7 +j   -651.1     2637.3       0.9690

ELEMENT = "Line.l8"
8        2         0.0 +j      0.0        0.0       0.7023
   TERMINAL TOTAL     0.0 +j      0.0        0.0       0.7023

ELEMENT = "Line.l9"
8        1         0.1 +j      0.1        0.1       0.7023
   TERMINAL TOTAL     0.1 +j      0.1        0.1       0.7023

ELEMENT = "Line.l10"
8        1       962.0 +j    268.5      998.7       0.9632
8        2       694.8 +j    161.9      713.5       0.9739
8        3       808.3 +j    175.3      827.1       0.9773
   TERMINAL TOTAL  2465.1 +j    605.8     2538.4       0.9711
13       1      -958.2 +j   -261.3      993.2       0.9648
13       2      -694.5 +j   -159.5      712.6       0.9746
13       3      -805.9 +j   -171.5      823.9       0.9781
   TERMINAL TOTAL -2458.6 +j   -592.3     2529.0       0.9722

ELEMENT = "Line.l11"
9R       1         0.0 +j      0.0        0.1       0.7023
   TERMINAL TOTAL     0.0 +j      0.0        0.1       0.7023

ELEMENT = "Line.l12"
13       3         0.0 +j      0.0        0.1       0.7023
   TERMINAL TOTAL     0.0 +j      0.0        0.1       0.7023

ELEMENT = "Line.l13"
13       1       367.9 +j    199.1      418.3       0.8794
13       2       240.2 +j    162.2      289.8       0.8287
13       3       244.4 +j    142.4      282.8       0.8641
   TERMINAL TOTAL   852.5 +j    503.7      990.2       0.8610
18       1      -366.5 +j   -195.8      415.5       0.8821
18       2      -240.0 +j   -160.9      289.0       0.8306
18       3      -243.2 +j   -141.4      281.3       0.8645
   TERMINAL TOTAL  -849.7 +j   -498.0      984.9       0.8627

ELEMENT = "Line.l14"
14       1         0.0 +j      0.0        0.0       0.7023
   TERMINAL TOTAL     0.0 +j      0.0        0.0       0.7023

ELEMENT = "Line.l15"
14       1         0.0 +j      0.0        0.0       0.7023
   TERMINAL TOTAL     0.0 +j      0.0        0.0       0.7023

ELEMENT = "Line.l16"
15       3         0.0 +j      0.0        0.0       0.7023
   TERMINAL TOTAL     0.0 +j      0.0        0.0       0.7023

ELEMENT = "Line.l17"
15       3         0.0 +j      0.0        0.0       0.7023
   TERMINAL TOTAL     0.0 +j      0.0        0.0       0.7023

ELEMENT = "Line.l18"
18       1         0.1 +j      0.1        0.1       0.7023
   TERMINAL TOTAL     0.1 +j      0.1        0.1       0.7023

ELEMENT = "Line.l19"
18       1        90.5 +j     45.6      101.4       0.8933
18       2        31.7 +j     15.9       35.5       0.8945
18       3        91.0 +j     45.6      101.7       0.8941
   TERMINAL TOTAL   213.2 +j    107.0      238.6       0.8938
21       1       -90.5 +j    -45.5      101.3       0.8936
21       2       -31.7 +j    -15.9       35.5       0.8944
21       3       -90.9 +j    -45.5      101.6       0.8943
   TERMINAL TOTAL  -213.2 +j   -106.8      238.4       0.8940

ELEMENT = "Line.l20"
19       1         0.0 +j      0.0        0.0       0.7023
   TERMINAL TOTAL     0.0 +j      0.0        0.0       0.7023

ELEMENT = "Line.l21"
21       2         0.0 +j      0.0        0.0       0.7023
   TERMINAL TOTAL     0.0 +j      0.0        0.0       0.7023

ELEMENT = "Line.l22"
21       1        90.5 +j     45.5      101.3       0.8936
21       2         0.0 +j     -0.0        0.0      -0.0628
21       3        90.9 +j     45.5      101.6       0.8943
   TERMINAL TOTAL   181.4 +j     91.0      203.0       0.8939
23       1       -90.5 +j    -45.4      101.3       0.8939
23       2        -0.0 +j      0.0        0.0      -0.0630
23       3       -90.8 +j    -45.4      101.6       0.8943
   TERMINAL TOTAL  -181.4 +j    -90.8      202.9       0.8941

ELEMENT = "Line.l23"
23       3         0.0 +j      0.0        0.0       0.7023
   TERMINAL TOTAL     0.0 +j      0.0        0.0       0.7023

ELEMENT = "Line.l24"
23       1        90.5 +j     45.4      101.3       0.8939
23       2         0.0 +j     -0.0        0.0      -0.0630
23       3        60.6 +j     30.3       67.7       0.8944
   TERMINAL TOTAL   151.1 +j     75.7      169.0       0.8941
25       1       -90.5 +j    -45.3      101.2       0.8942
25       2        -0.0 +j      0.0        0.0      -0.0630
25       3       -60.5 +j    -30.3       67.7       0.8944
   TERMINAL TOTAL  -151.1 +j    -75.6      168.9       0.8943

ELEMENT = "Line.l25"
25R      1        30.2 +j     15.1       33.8       0.8941
25R      3        30.3 +j     15.1       33.8       0.8944
   TERMINAL TOTAL    60.5 +j     30.3       67.6       0.8942
26       1       -30.2 +j    -15.1       33.8       0.8942
26       3       -30.3 +j    -15.1       33.8       0.8944
   TERMINAL TOTAL   -60.4 +j    -30.2       67.6       0.8943

ELEMENT = "Line.l26"
25       1        60.3 +j     30.2       67.5       0.8943
25       2         0.0 +j     -0.0        0.0      -0.0630
25       3        30.3 +j     15.1       33.8       0.8944
   TERMINAL TOTAL    90.6 +j     45.3      101.3       0.8943
28       1       -60.3 +j    -30.2       67.5       0.8944
28       2        -0.0 +j      0.0        0.0      -0.0631
28       3       -30.3 +j    -15.1       33.8       0.8943
   TERMINAL TOTAL   -90.6 +j    -45.3      101.3       0.8944

ELEMENT = "Line.l27"
26       1        30.2 +j     15.1       33.8       0.8942
26       3        -0.0 +j     -0.0        0.0       0.1561
   TERMINAL TOTAL    30.2 +j     15.1       33.8       0.8942
27       1       -30.2 +j    -15.1       33.8       0.8943
27       3         0.0 +j     -0.0        0.0      -0.4855
   TERMINAL TOTAL   -30.2 +j    -15.1       33.8       0.8943

ELEMENT = "Line.l28"
26       3         0.0 +j      0.0        0.0       0.7023
   TERMINAL TOTAL     0.0 +j      0.0        0.0       0.7023

ELEMENT = "Line.l29"
27       1         0.0 +j      0.0        0.0       0.7023
   TERMINAL TOTAL     0.0 +j      0.0        0.0       0.7023

ELEMENT = "Line.l30"
28       1        30.1 +j     15.1       33.7       0.8944
28       2         0.0 +j     -0.0        0.0      -0.0631
28       3        30.3 +j     15.1       33.8       0.8943
   TERMINAL TOTAL    60.4 +j     30.2       67.5       0.8944
29       1       -30.1 +j    -15.1       33.7       0.8945
29       2        -0.0 +j      0.0        0.0      -0.0631
29       3       -30.2 +j    -15.1       33.8       0.8943
   TERMINAL TOTAL   -60.4 +j    -30.2       67.5       0.8944

ELEMENT = "Line.l31"
29       1         0.0 +j     -0.0        0.0      -0.0713
29       2         0.0 +j     -0.0        0.0      -0.0631
29       3        30.2 +j     15.1       33.8       0.8943
   TERMINAL TOTAL    30.2 +j     15.1       33.8       0.8944
30       1        -0.0 +j      0.0        0.0      -0.0713
30       2        -0.0 +j      0.0        0.0      -0.0633
30       3       -30.2 +j    -15.1       33.8       0.8944
   TERMINAL TOTAL   -30.2 +j    -15.1       33.8       0.8945

ELEMENT = "Line.l32"
30       1         0.0 +j     -0.0        0.0      -0.0713
30       2         0.0 +j     -0.0        0.0      -0.0633
30       3        -0.0 +j     -0.0        0.0       0.1340
   TERMINAL TOTAL     0.0 +j     -0.0        0.0      -0.0000
250      1        -0.0 +j      0.0        0.0      -0.4165
250      2        -0.0 +j      0.0        0.0      -0.3488
250      3         0.0 +j      0.0        0.0       0.2751
   TERMINAL TOTAL    -0.0 +j      0.0        0.0      -0.2560

ELEMENT = "Line.l33"
31       3         0.0 +j      0.0        0.0       0.7023
   TERMINAL TOTAL     0.0 +j      0.0        0.0       0.7023

ELEMENT = "Line.l34"
34       3         0.0 +j      0.0        0.0       0.7023
   TERMINAL TOTAL     0.0 +j      0.0        0.0       0.7023

ELEMENT = "Line.l35"
35       1        30.1 +j     15.0       33.6       0.8943
35       2        30.6 +j     15.3       34.2       0.8941
   TERMINAL TOTAL    60.7 +j     30.4       67.8       0.8942
36       1       -30.0 +j    -15.0       33.6       0.8944
36       2       -30.6 +j    -15.3       34.2       0.8944
   TERMINAL TOTAL   -60.6 +j    -30.3       67.8       0.8944

ELEMENT = "Line.l36"
35       1       165.8 +j    105.8      196.7       0.8430
35       2       166.5 +j    112.7      201.1       0.8282
35       3       152.1 +j     95.6      179.7       0.8467
   TERMINAL TOTAL   484.5 +j    314.1      577.4       0.8391
40       1      -165.7 +j   -105.6      196.5       0.8432
40       2      -166.5 +j   -112.5      200.9       0.8286
40       3      -152.1 +j    -95.4      179.5       0.8470
   TERMINAL TOTAL  -484.2 +j   -313.5      576.9       0.8394

ELEMENT = "Line.l37"
36       1         0.0 +j      0.0        0.0       0.7023
   TERMINAL TOTAL     0.0 +j      0.0        0.0       0.7023

ELEMENT = "Line.l38"
36       2         0.0 +j      0.0        0.0       0.7023
   TERMINAL TOTAL     0.0 +j      0.0        0.0       0.7023

ELEMENT = "Line.l39"
38       2         0.0 +j      0.0        0.0       0.7023
   TERMINAL TOTAL     0.0 +j      0.0        0.0       0.7023

ELEMENT = "Line.l40"
40       3         0.0 +j      0.0        0.0       0.7023
   TERMINAL TOTAL     0.0 +j      0.0        0.0       0.7023

ELEMENT = "Line.l41"
40       1       165.7 +j    105.6      196.5       0.8432
40       2       166.5 +j    112.5      200.9       0.8286
40       3       137.0 +j     87.9      162.7       0.8417
   TERMINAL TOTAL   469.1 +j    306.0      560.1       0.8376
42       1      -165.5 +j   -105.4      196.2       0.8435
42       2      -166.4 +j   -112.3      200.8       0.8289
42       3      -136.9 +j    -87.7      162.6       0.8419
   TERMINAL TOTAL  -468.8 +j   -305.4      559.5       0.8379

ELEMENT = "Line.l42"
42       2         0.0 +j      0.0        0.0       0.7023
   TERMINAL TOTAL     0.0 +j      0.0        0.0       0.7023

ELEMENT = "Line.l43"
42       1       150.4 +j     97.8      179.4       0.8382
42       2       134.9 +j     96.5      165.9       0.8133
42       3       136.9 +j     87.7      162.6       0.8419
   TERMINAL TOTAL   422.2 +j    282.1      507.8       0.8315
44       1      -150.3 +j    -97.7      179.3       0.8384
44       2      -134.9 +j    -96.4      165.8       0.8135
44       3      -136.9 +j    -87.6      162.5       0.8421
   TERMINAL TOTAL  -422.0 +j   -281.8      507.5       0.8317

ELEMENT = "Line.l44"
44       1         0.0 +j      0.0        0.0       0.7023
   TERMINAL TOTAL     0.0 +j      0.0        0.0       0.7023

ELEMENT = "Line.l45"
44       1       120.1 +j     82.6      145.8       0.8239
44       2       134.9 +j     96.4      165.8       0.8135
44       3       136.9 +j     87.6      162.5       0.8421
   TERMINAL TOTAL   391.9 +j    266.7      474.0       0.8267
47       1      -120.1 +j    -82.5      145.7       0.8241
47       2      -134.8 +j    -96.3      165.7       0.8137
47       3      -136.8 +j    -87.5      162.4       0.8425
   TERMINAL TOTAL  -391.7 +j   -266.3      473.7       0.8270

ELEMENT = "Line.l46"
45       1         0.0 +j      0.0        0.0       0.7023
   TERMINAL TOTAL     0.0 +j      0.0        0.0       0.7023

ELEMENT = "Line.l47"
47       1        52.2 +j     37.3       64.1       0.8137
47       2        54.9 +j     39.2       67.5       0.8137
47       3        53.5 +j     38.2       65.7       0.8137
   TERMINAL TOTAL   160.6 +j    114.7      197.4       0.8137
48       1       -52.2 +j    -37.3       64.1       0.8137
48       2       -54.9 +j    -39.2       67.5       0.8137
48       3       -53.5 +j    -38.2       65.7       0.8137
   TERMINAL TOTAL  -160.6 +j   -114.7      197.4       0.8137

ELEMENT = "Line.l48"
47       1        41.6 +j     26.5       49.3       0.8436
47       2        52.9 +j     37.8       65.1       0.8137
47       3        56.7 +j     30.3       64.3       0.8822
   TERMINAL TOTAL   151.2 +j     94.5      178.4       0.8479
49       1       -41.6 +j    -26.5       49.3       0.8437
49       2       -52.9 +j    -37.8       65.0       0.8138
49       3       -56.7 +j    -30.2       64.3       0.8824
   TERMINAL TOTAL  -151.2 +j    -94.5      178.3       0.8480

ELEMENT = "Line.l49"
49       1        15.1 +j      7.6       16.9       0.8945
49       2        -0.0 +j     -0.0        0.0       0.0772
49       3        30.2 +j     15.1       33.8       0.8945
   TERMINAL TOTAL    45.4 +j     22.7       50.7       0.8945
50       1       -15.1 +j     -7.6       16.9       0.8945
50       2         0.0 +j      0.0        0.0       0.0770
50       3       -30.2 +j    -15.1       33.8       0.8945
   TERMINAL TOTAL   -45.4 +j    -22.7       50.7       0.8945

ELEMENT = "Line.l50"
50       1        15.1 +j      7.6       16.9       0.8945
50       2        -0.0 +j     -0.0        0.0       0.0770
50       3         0.0 +j     -0.0        0.0      -0.1444
   TERMINAL TOTAL    15.1 +j      7.5       16.9       0.8948
51       1       -15.1 +j     -7.6       16.9       0.8945
51       2         0.0 +j      0.0        0.0       0.0771
51       3        -0.0 +j      0.0        0.0      -0.1445
   TERMINAL TOTAL   -15.1 +j     -7.5       16.9       0.8947

ELEMENT = "Line.l51"
51       1        -0.0 +j     -0.0        0.0       0.0687
51       2        -0.0 +j     -0.0        0.0       0.0771
51       3         0.0 +j     -0.0        0.0      -0.1445
   TERMINAL TOTAL    -0.0 +j     -0.0        0.0       0.0000
151      1         0.0 +j      0.0        0.0       1.0000
151      2         0.0 +j     -0.0        0.0      -1.0000
151      3         0.0 +j      0.0        0.0       1.0000
   TERMINAL TOTAL     0.0 +j      0.0        0.0       1.0000

ELEMENT = "Line.l52"
52       1       558.1 +j     43.7      559.8       0.9969
52       2       454.1 +j     -4.3      454.1      -1.0000
52       3       484.0 +j    -10.9      484.1      -0.9997
   TERMINAL TOTAL  1496.2 +j     28.6     1496.4       0.9998
53       1      -557.2 +j    -42.3      558.8       0.9971
53       2      -453.9 +j      5.0      453.9      -0.9999
53       3      -483.6 +j     11.8      483.7      -0.9997
   TERMINAL TOTAL -1494.7 +j    -25.5     1494.9       0.9999

ELEMENT = "Line.l53"
53       1       527.0 +j     27.2      527.7       0.9987
53       2       453.9 +j     -5.0      453.9      -0.9999
53       3       483.6 +j    -11.8      483.7      -0.9997
   TERMINAL TOTAL  1464.4 +j     10.4     1464.5       1.0000
54       1      -526.5 +j    -26.4      527.2       0.9987
54       2      -453.8 +j      5.5      453.8      -0.9999
54       3      -483.3 +j     12.4      483.4      -0.9997
   TERMINAL TOTAL -1463.6 +j     -8.5     1463.6       1.0000

ELEMENT = "Line.l54"
54       1        15.1 +j      7.6       16.9       0.8945
54       2        15.1 +j      7.6       16.9       0.8944
54       3         0.0 +j     -0.0        0.0      -0.0674
   TERMINAL TOTAL    30.2 +j     15.1       33.8       0.8945
55       1       -15.1 +j     -7.6       16.9       0.8945
55       2       -15.1 +j     -7.6       16.9       0.8944
55       3        -0.0 +j      0.0        0.0      -0.0675
   TERMINAL TOTAL   -30.2 +j    -15.1       33.8       0.8945

ELEMENT = "Line.l55"
54       1       511.4 +j     18.8      511.7       0.9993
54       2       438.7 +j    -13.1      438.9      -0.9996
54       3       483.3 +j    -12.3      483.4      -0.9997
   TERMINAL TOTAL  1433.3 +j     -6.6     1433.3      -1.0000
57       1      -510.5 +j    -16.7      510.8       0.9995
57       2      -437.9 +j     14.4      438.1      -0.9995
57       3      -482.5 +j     13.8      482.7      -0.9996
   TERMINAL TOTAL -1430.9 +j     11.5     1431.0      -1.0000

ELEMENT = "Line.l56"
55       1        -0.0 +j     -0.0        0.0       0.1473
55       2        15.1 +j      7.6       16.9       0.8944
55       3         0.0 +j     -0.0        0.0      -0.0675
   TERMINAL TOTAL    15.1 +j      7.6       16.9       0.8945
56       1        -0.0 +j      0.0        0.0      -0.4158
56       2       -15.1 +j     -7.6       16.9       0.8944
56       3        -0.0 +j      0.0        0.0      -0.4811
   TERMINAL TOTAL   -15.1 +j     -7.6       16.9       0.8944

ELEMENT = "Line.l57"
57       2         0.0 +j      0.0        0.0       0.7023
   TERMINAL TOTAL     0.0 +j      0.0        0.0       0.7023

ELEMENT = "Line.l58"
57       1       510.5 +j     16.7      510.8       0.9995
57       2       407.3 +j    -29.7      408.4      -0.9974
57       3       482.5 +j    -13.8      482.7      -0.9996
   TERMINAL TOTAL  1400.3 +j    -26.8     1400.6      -0.9998
60       1      -508.7 +j    -11.9      508.8       0.9997
60       2      -406.0 +j     32.0      407.2      -0.9969
60       3      -480.7 +j     16.8      481.0      -0.9994
   TERMINAL TOTAL -1395.4 +j     36.8     1395.9      -0.9997

ELEMENT = "Line.l59"
58       2         0.0 +j      0.0        0.0       0.7023
   TERMINAL TOTAL     0.0 +j      0.0        0.0       0.7023

ELEMENT = "Line.l60"
60       1        -0.0 +j     -0.0        0.0       0.0852
60       2         0.0 +j     -0.0        0.0      -0.1404
60       3        -0.0 +j     -0.0        0.0       0.0590
   TERMINAL TOTAL     0.0 +j     -0.0        0.0      -0.0002
61       1        -0.0 +j     -0.0        0.0       0.0288
61       2        -0.0 +j     -0.0        0.0       0.0338
61       3        -0.0 +j     -0.0        0.0       0.0275
   TERMINAL TOTAL    -0.0 +j     -0.0        0.0       0.0301

ELEMENT = "Line.l61"
60       1        64.5 +j     50.4       81.9       0.7883
60       2        85.2 +j     46.3       97.0       0.8786
60       3       133.2 +j     63.4      147.5       0.9030
   TERMINAL TOTAL   282.9 +j    160.1      325.0       0.8704
62       1       -64.5 +j    -50.4       81.8       0.7882
62       2       -85.1 +j    -46.3       96.9       0.8783
62       3      -133.0 +j    -63.3      147.3       0.9030
   TERMINAL TOTAL  -282.6 +j   -160.0      324.7       0.8702

ELEMENT = "Line.l62"
62       1        64.5 +j     50.4       81.8       0.7882
62       2        85.1 +j     46.3       96.9       0.8783
62       3       102.4 +j     48.0      113.1       0.9055
   TERMINAL TOTAL   252.0 +j    144.7      290.6       0.8672
63       1       -64.5 +j    -50.4       81.8       0.7880
63       2       -85.0 +j    -46.3       96.8       0.8782
63       3      -102.3 +j    -48.0      113.0       0.9055
   TERMINAL TOTAL  -251.8 +j   -144.6      290.4       0.8672

ELEMENT = "Line.l63"
63       1        34.2 +j     35.2       49.1       0.6967
63       2        85.0 +j     46.3       96.8       0.8782
63       3       102.3 +j     48.0      113.0       0.9055
   TERMINAL TOTAL   221.6 +j    129.5      256.7       0.8634
64       1       -34.2 +j    -35.3       49.1       0.6962
64       2       -84.9 +j    -46.3       96.7       0.8779
64       3      -102.2 +j    -47.9      112.8       0.9056
   TERMINAL TOTAL  -221.3 +j   -129.4      256.4       0.8632

ELEMENT = "Line.l64"
64       1        34.2 +j     35.3       49.1       0.6962
64       2        27.1 +j     19.3       33.3       0.8140
64       3       102.2 +j     47.9      112.8       0.9056
   TERMINAL TOTAL   163.5 +j    102.5      192.9       0.8473
65       1       -34.2 +j    -35.3       49.1       0.6960
65       2       -27.1 +j    -19.4       33.3       0.8132
65       3      -102.0 +j    -47.8      112.6       0.9055
   TERMINAL TOTAL  -163.2 +j   -102.4      192.7       0.8470

ELEMENT = "Line.l65"
65       1         0.0 +j     -0.0        0.0      -0.0002
65       2        -0.0 +j     -0.0        0.0       0.0002
65       3        56.8 +j     26.5       62.6       0.9063
   TERMINAL TOTAL    56.8 +j     26.4       62.6       0.9066
66       1        -0.0 +j     -0.0        0.0       0.9688
66       2        -0.0 +j     -0.0        0.0       0.5229
66       3       -56.7 +j    -26.5       62.6       0.9062
   TERMINAL TOTAL   -56.7 +j    -26.5       62.6       0.9062

ELEMENT = "Line.l66"
67       1         0.1 +j      0.1        0.1       0.7023
   TERMINAL TOTAL     0.1 +j      0.1        0.1       0.7023

ELEMENT = "Line.l67"
67       1       199.2 +j   -162.8      257.2      -0.7743
67       2       229.7 +j   -124.6      261.3      -0.8790
67       3       239.0 +j   -134.9      274.5      -0.8709
   TERMINAL TOTAL   667.9 +j   -422.2      790.2      -0.8453
72       1      -199.1 +j    163.2      257.4      -0.7734
72       2      -229.5 +j    124.9      261.2      -0.8783
72       3      -238.8 +j    135.3      274.5      -0.8701
   TERMINAL TOTAL  -667.4 +j    423.4      790.3      -0.8444

ELEMENT = "Line.l68"
67       1       138.4 +j     69.8      155.0       0.8929
67       2        90.8 +j     45.5      101.6       0.8940
67       3       107.9 +j     54.1      120.7       0.8940
   TERMINAL TOTAL   337.1 +j    169.4      377.3       0.8936
97       1      -138.3 +j    -69.6      154.9       0.8932
97       2       -90.8 +j    -45.5      101.5       0.8942
97       3      -107.9 +j    -54.0      120.6       0.8941
   TERMINAL TOTAL  -337.0 +j   -169.1      377.0       0.8938

ELEMENT = "Line.l69"
68       1         0.1 +j      0.1        0.1       0.7023
   TERMINAL TOTAL     0.1 +j      0.1        0.1       0.7023

ELEMENT = "Line.l70"
69       1         0.0 +j      0.0        0.0       0.7023
   TERMINAL TOTAL     0.0 +j      0.0        0.0       0.7023

ELEMENT = "Line.l71"
70       1         0.0 +j      0.0        0.0       0.7023
   TERMINAL TOTAL     0.0 +j      0.0        0.0       0.7023

ELEMENT = "Line.l72"
72       3         0.1 +j      0.1        0.2       0.7023
   TERMINAL TOTAL     0.1 +j      0.1        0.2       0.7023

ELEMENT = "Line.l73"
72       1       199.1 +j   -163.2      257.4      -0.7734
72       2       229.5 +j   -124.9      261.2      -0.8783
72       3       146.2 +j   -181.7      233.2      -0.6268
   TERMINAL TOTAL   574.7 +j   -469.8      742.3      -0.7742
76       1      -198.9 +j    163.4      257.4      -0.7728
76       2      -229.2 +j    125.2      261.2      -0.8776
76       3      -146.1 +j    182.0      233.4      -0.6262
   TERMINAL TOTAL  -574.3 +j    470.6      742.5      -0.7735

ELEMENT = "Line.l74"
73       3         0.1 +j      0.1        0.1       0.7023
   TERMINAL TOTAL     0.1 +j      0.1        0.1       0.7023

ELEMENT = "Line.l75"
74       3         0.0 +j      0.0        0.0       0.7023
   TERMINAL TOTAL     0.0 +j      0.0        0.0       0.7023

ELEMENT = "Line.l76"
76       1        63.0 +j   -182.6      193.2      -0.3262
76       2        61.1 +j   -184.8      194.6      -0.3140
76       3        61.4 +j   -183.1      193.1      -0.3177
   TERMINAL TOTAL   185.5 +j   -550.5      580.9      -0.3193
77       1       -62.9 +j    182.9      193.4      -0.3252
77       2       -61.0 +j    185.1      194.9      -0.3128
77       3       -61.2 +j    183.4      193.3      -0.3165
   TERMINAL TOTAL  -185.0 +j    551.4      581.6      -0.3182

ELEMENT = "Line.l77"
76       1        60.6 +j    -22.8       64.7      -0.9361
76       2       107.1 +j      0.6      107.1       1.0000
76       3        30.2 +j    -38.2       48.7      -0.6210
   TERMINAL TOTAL   197.9 +j    -60.3      206.9      -0.9565
86       1       -60.6 +j     22.8       64.7      -0.9360
86       2      -106.9 +j     -0.4      106.9       1.0000
86       3       -30.3 +j     38.2       48.8      -0.6207
   TERMINAL TOTAL  -197.8 +j     60.6      206.8      -0.9561

ELEMENT = "Line.l78"
77       1        62.9 +j   -182.9      193.4      -0.3252
77       2        30.7 +j   -200.2      202.5      -0.1516
77       3        61.2 +j   -183.4      193.3      -0.3165
   TERMINAL TOTAL   154.8 +j   -566.5      587.3      -0.2636
78       1       -62.9 +j    183.0      193.5      -0.3250
78       2       -30.7 +j    200.3      202.6      -0.1514
78       3       -61.1 +j    183.4      193.4      -0.3162
   TERMINAL TOTAL  -154.7 +j    566.7      587.5      -0.2633

ELEMENT = "Line.l79"
78       1        32.3 +j     16.1       36.1       0.8944
78       2        -0.0 +j     -0.0        0.0       0.0624
78       3        -0.0 +j     -0.0        0.0       0.0743
   TERMINAL TOTAL    32.3 +j     16.1       36.1       0.8944
79       1       -32.3 +j    -16.1       36.1       0.8944
79       2         0.0 +j      0.0        0.0       0.0953
79       3         0.0 +j      0.0        0.0       0.5816
   TERMINAL TOTAL   -32.3 +j    -16.1       36.1       0.8944

ELEMENT = "Line.l80"
78       1        30.6 +j   -199.1      201.5      -0.1519
78       2        30.7 +j   -200.3      202.6      -0.1514
78       3        61.1 +j   -183.4      193.4      -0.3162
   TERMINAL TOTAL   122.4 +j   -582.9      595.6      -0.2055
80       1       -30.5 +j    199.6      201.9      -0.1509
80       2       -30.5 +j    200.7      203.0      -0.1503
80       3       -60.9 +j    183.7      193.6      -0.3146
   TERMINAL TOTAL  -121.9 +j    584.0      596.5      -0.2043

ELEMENT = "Line.l81"
80       1        30.5 +j   -199.6      201.9      -0.1509
80       2         0.3 +j   -215.8      215.8      -0.0013
80       3        60.9 +j   -183.7      193.6      -0.3146
   TERMINAL TOTAL    91.6 +j   -599.1      606.0      -0.1512
81       1       -30.4 +j    199.7      202.0      -0.1505
81       2        -0.2 +j    216.0      216.0      -0.0010
81       3       -60.8 +j    183.8      193.6      -0.3141
   TERMINAL TOTAL   -91.4 +j    599.5      606.4      -0.1508

ELEMENT = "Line.l82"
81       1        30.4 +j   -199.7      202.0      -0.1505
81       2         0.2 +j   -216.0      216.0      -0.0010
81       3        15.4 +j   -206.6      207.2      -0.0741
   TERMINAL TOTAL    46.0 +j   -622.3      624.0      -0.0737
82       1       -30.3 +j    199.9      202.2      -0.1500
82       2        -0.1 +j    216.2      216.2      -0.0005
82       3       -15.3 +j    206.8      207.3      -0.0736
   TERMINAL TOTAL   -45.7 +j    622.9      624.6      -0.0731

ELEMENT = "Line.l83"
81       3         0.1 +j      0.1        0.1       0.7023
   TERMINAL TOTAL     0.1 +j      0.1        0.1       0.7023

ELEMENT = "Line.l84"
82       1         0.1 +j   -215.0      215.0      -0.0004
82       2         0.1 +j   -216.2      216.2      -0.0005
82       3        15.3 +j   -206.8      207.3      -0.0736
   TERMINAL TOTAL    15.4 +j   -638.0      638.2      -0.0242
83       1         0.0 +j    215.3      215.3       0.0000
83       2         0.0 +j    216.4      216.4       0.0000
83       3       -15.1 +j    207.0      207.5      -0.0729
   TERMINAL TOTAL   -15.1 +j    638.7      638.8      -0.0237

ELEMENT = "Line.l85"
84       3         0.0 +j      0.0        0.0       0.7023
   TERMINAL TOTAL     0.0 +j      0.0        0.0       0.7023

ELEMENT = "Line.l86"
86       1        60.6 +j    -22.8       64.7      -0.9360
86       2        91.8 +j     -7.2       92.1      -0.9970
86       3        30.3 +j    -38.2       48.8      -0.6207
   TERMINAL TOTAL   182.6 +j    -68.2      195.0      -0.9368
87       1       -60.5 +j     22.8       64.7      -0.9359
87       2       -91.8 +j      7.3       92.1      -0.9969
87       3       -30.3 +j     38.2       48.8      -0.6205
   TERMINAL TOTAL  -182.6 +j     68.3      194.9      -0.9365

ELEMENT = "Line.l87"
87       1         0.0 +j      0.0        0.0       0.7023
   TERMINAL TOTAL     0.0 +j      0.0        0.0       0.7023

ELEMENT = "Line.l88"
87       1        30.3 +j     15.1       33.8       0.8945
87       2        61.5 +j    -22.4       65.5      -0.9396
87       3        30.3 +j    -38.2       48.8      -0.6205
   TERMINAL TOTAL   122.1 +j    -45.5      130.3      -0.9370
89       1       -30.3 +j    -15.1       33.8       0.8944
89       2       -61.5 +j     22.5       65.5      -0.9394
89       3       -30.3 +j     38.3       48.8      -0.6204
   TERMINAL TOTAL  -122.0 +j     45.6      130.3      -0.9368

ELEMENT = "Line.l89"
89       2         0.0 +j      0.0        0.0       0.7023
   TERMINAL TOTAL     0.0 +j      0.0        0.0       0.7023

ELEMENT = "Line.l90"
89       1        30.3 +j     15.1       33.8       0.8944
89       2        30.3 +j     15.1       33.8       0.8942
89       3        30.3 +j    -38.3       48.8      -0.6204
   TERMINAL TOTAL    90.8 +j     -8.0       91.1      -0.9962
91       1       -30.3 +j    -15.1       33.8       0.8944
91       2       -30.2 +j    -15.1       33.8       0.8943
91       3       -30.3 +j     38.3       48.8      -0.6202
   TERMINAL TOTAL   -90.8 +j      8.0       91.1      -0.9961

ELEMENT = "Line.l91"
91       3         0.0 +j      0.0        0.0       0.7023
   TERMINAL TOTAL     0.0 +j      0.0        0.0       0.7023

ELEMENT = "Line.l92"
91       1        30.3 +j     15.1       33.8       0.8944
91       2        30.2 +j     15.1       33.8       0.8943
91       3        -0.0 +j     -0.0        0.0       0.0740
   TERMINAL TOTAL    60.5 +j     30.3       67.7       0.8944
93       1       -30.3 +j    -15.1       33.8       0.8944
93       2       -30.2 +j    -15.1       33.8       0.8943
93       3         0.0 +j      0.0        0.0       0.0739
   TERMINAL TOTAL   -60.5 +j    -30.3       67.6       0.8944

ELEMENT = "Line.l93"
93       1         0.0 +j      0.0        0.0       0.7023
   TERMINAL TOTAL     0.0 +j      0.0        0.0       0.7023

ELEMENT = "Line.l94"
93       1         0.0 +j     -0.0        0.0      -0.1372
93       2        30.2 +j     15.1       33.8       0.8943
93       3        -0.0 +j     -0.0        0.0       0.0739
   TERMINAL TOTAL    30.2 +j     15.1       33.8       0.8944
95       1         0.0 +j      0.0        0.0       0.0546
95       2       -30.2 +j    -15.1       33.8       0.8944
95       3        -0.0 +j      0.0        0.0      -0.4678
   TERMINAL TOTAL   -30.2 +j    -15.1       33.8       0.8944

ELEMENT = "Line.l95"
95       2         0.0 +j      0.0        0.0       0.7023
   TERMINAL TOTAL     0.0 +j      0.0        0.0       0.7023

ELEMENT = "Line.l96"
97       1        30.2 +j     15.1       33.8       0.8945
97       2        30.3 +j     15.1       33.8       0.8945
97       3        32.1 +j     16.1       35.9       0.8942
   TERMINAL TOTAL    92.6 +j     46.3      103.5       0.8944
98       1       -30.2 +j    -15.1       33.8       0.8946
98       2       -30.3 +j    -15.1       33.8       0.8945
98       3       -32.1 +j    -16.1       35.9       0.8943
   TERMINAL TOTAL   -92.6 +j    -46.3      103.5       0.8944

ELEMENT = "Line.l97"
98       1         0.0 +j     -0.0        0.0      -0.0603
98       2        30.3 +j     15.1       33.8       0.8945
98       3        32.1 +j     16.1       35.9       0.8943
   TERMINAL TOTAL    62.3 +j     31.2       69.7       0.8945
99       1        -0.0 +j      0.0        0.0      -0.0605
99       2       -30.2 +j    -15.1       33.8       0.8945
99       3       -32.1 +j    -16.0       35.9       0.8944
   TERMINAL TOTAL   -62.3 +j    -31.1       69.7       0.8945

ELEMENT = "Line.l98"
99       1         0.0 +j     -0.0        0.0      -0.0605
99       2        -0.0 +j     -0.0        0.0       0.1385
99       3        32.1 +j     16.0       35.9       0.8944
   TERMINAL TOTAL    32.1 +j     16.0       35.9       0.8946
100      1        -0.0 +j      0.0        0.0      -0.0605
100      2         0.0 +j      0.0        0.0       0.1384
100      3       -32.1 +j    -16.0       35.9       0.8945
   TERMINAL TOTAL   -32.1 +j    -16.0       35.8       0.8946

ELEMENT = "Line.l99"
100      1         0.0 +j     -0.0        0.0      -0.0605
100      2        -0.0 +j     -0.0        0.0       0.1384
100      3         0.0 +j     -0.0        0.0      -0.0785
   TERMINAL TOTAL     0.0 +j     -0.0        0.0      -0.0000
450      1        -0.0 +j     -0.0        0.0       0.7432
450      2        -0.0 +j     -0.0        0.0       0.0912
450      3        -0.0 +j     -0.0        0.0       0.8827
   TERMINAL TOTAL    -0.0 +j     -0.0        0.0       0.5054

ELEMENT = "Line.l118"
197      1       108.1 +j     54.5      121.0       0.8928
197      2        60.5 +j     30.3       67.7       0.8940
197      3        75.8 +j     38.0       84.8       0.8941
   TERMINAL TOTAL   244.4 +j    122.8      273.5       0.8935
101      1      -108.0 +j    -54.4      121.0       0.8931
101      2       -60.5 +j    -30.3       67.7       0.8941
101      3       -75.8 +j    -37.9       84.7       0.8941
   TERMINAL TOTAL  -244.3 +j   -122.7      273.4       0.8936

ELEMENT = "Line.l100"
101      3         0.1 +j      0.1        0.1       0.7023
   TERMINAL TOTAL     0.1 +j      0.1        0.1       0.7023

ELEMENT = "Line.l101"
101      1       108.0 +j     54.4      121.0       0.8931
101      2        60.5 +j     30.3       67.7       0.8941
101      3         0.0 +j     -0.0        0.0      -0.0788
   TERMINAL TOTAL   168.6 +j     84.7      188.7       0.8935
105      1      -108.0 +j    -54.3      120.9       0.8933
105      2       -60.5 +j    -30.3       67.7       0.8943
105      3        -0.0 +j      0.0        0.0      -0.0792
   TERMINAL TOTAL  -168.5 +j    -84.6      188.6       0.8937

ELEMENT = "Line.l102"
102      3         0.1 +j      0.1        0.1       0.7023
   TERMINAL TOTAL     0.1 +j      0.1        0.1       0.7023

ELEMENT = "Line.l103"
103      3         0.0 +j      0.0        0.0       0.7023
   TERMINAL TOTAL     0.0 +j      0.0        0.0       0.7023

ELEMENT = "Line.l104"
105      2         0.0 +j      0.0        0.1       0.7023
   TERMINAL TOTAL     0.0 +j      0.0        0.1       0.7023

ELEMENT = "Line.l105"
105      1       108.0 +j     54.3      120.9       0.8933
105      2        -0.0 +j     -0.0        0.0       0.1388
105      3         0.0 +j     -0.0        0.0      -0.0792
   TERMINAL TOTAL   108.0 +j     54.3      120.9       0.8934
108      1      -107.9 +j    -54.2      120.7       0.8937
108      2         0.0 +j      0.0        0.0       0.1390
108      3        -0.0 +j      0.0        0.0      -0.0797
   TERMINAL TOTAL  -107.9 +j    -54.1      120.7       0.8938

ELEMENT = "Line.l106"
106      2         0.0 +j      0.0        0.0       0.7023
   TERMINAL TOTAL     0.0 +j      0.0        0.0       0.7023

ELEMENT = "Line.l107"
108      1         0.3 +j      0.3        0.4       0.7023
   TERMINAL TOTAL     0.3 +j      0.3        0.4       0.7023

ELEMENT = "Line.l108"
108      1         0.0 +j     -0.0        0.0      -0.0601
108      2        -0.0 +j     -0.0        0.0       0.1390
108      3         0.0 +j     -0.0        0.0      -0.0797
   TERMINAL TOTAL     0.0 +j     -0.0        0.0      -0.0000
300      1        -0.0 +j     -0.0        0.0       0.0543
300      2        -0.0 +j     -0.0        0.0       0.5276
300      3         0.0 +j     -0.0        0.0      -0.4714
   TERMINAL TOTAL     0.0 +j     -0.0        0.0      -0.0366

ELEMENT = "Line.l109"
109      1         0.1 +j      0.1        0.1       0.7023
   TERMINAL TOTAL     0.1 +j      0.1        0.1       0.7023

ELEMENT = "Line.l110"
110      1         0.0 +j      0.0        0.0       0.7023
   TERMINAL TOTAL     0.0 +j      0.0        0.0       0.7023

ELEMENT = "Line.l111"
110      1         0.0 +j      0.0        0.0       0.7023
   TERMINAL TOTAL     0.0 +j      0.0        0.0       0.7023

ELEMENT = "Line.l112"
112      1         0.1 +j      0.1        0.1       0.7023
   TERMINAL TOTAL     0.1 +j      0.1        0.1       0.7023

ELEMENT = "Line.l113"
113      1         0.0 +j      0.0        0.0       0.7023
   TERMINAL TOTAL     0.0 +j      0.0        0.0       0.7023

ELEMENT = "Line.l114"
135      1       215.5 +j    119.9      246.6       0.8738
135      2       208.3 +j    145.1      253.8       0.8206
135      3       152.2 +j     95.8      179.8       0.8463
   TERMINAL TOTAL   576.0 +j    360.8      679.6       0.8475
35       1      -215.2 +j   -119.4      246.1       0.8744
35       2      -208.1 +j   -144.6      253.4       0.8212
35       3      -152.1 +j    -95.6      179.7       0.8467
   TERMINAL TOTAL  -575.4 +j   -359.6      678.5       0.8480

ELEMENT = "Line.l116"
152      1       590.3 +j     62.2      593.6       0.9945
152      2       454.3 +j     -2.7      454.3      -1.0000
152      3       484.9 +j     -9.2      485.0      -0.9998
   TERMINAL TOTAL  1529.5 +j     50.3     1530.4       0.9995
52       1      -588.3 +j    -58.9      591.3       0.9950
52       2      -454.1 +j      4.3      454.1      -1.0000
52       3      -484.0 +j     10.9      484.1      -0.9997
   TERMINAL TOTAL -1526.4 +j    -43.7     1527.0       0.9996

ELEMENT = "Line.l117"
160R     1       429.0 +j    -46.0      431.5      -0.9943
160R     2       320.8 +j    -78.3      330.2      -0.9715
160R     3       347.5 +j    -80.2      356.7      -0.9744
   TERMINAL TOTAL  1097.4 +j   -204.4     1116.2      -0.9831
67       1      -428.5 +j     47.4      431.1      -0.9939
67       2      -320.5 +j     79.1      330.1      -0.9709
67       3      -347.0 +j     80.8      356.2      -0.9739
   TERMINAL TOTAL -1096.0 +j    207.3     1115.4      -0.9826

ELEMENT = "Line.sw1"
150R     1      1096.8 +j    356.4     1153.3       0.9510
150R     2       725.4 +j    184.8      748.5       0.9690
150R     3       894.0 +j    226.1      922.1       0.9695
   TERMINAL TOTAL  2716.1 +j    767.4     2822.4       0.9623
149      1     -1096.8 +j   -356.4     1153.3       0.9510
149      2      -725.4 +j   -184.8      748.5       0.9690
149      3      -894.0 +j   -226.1      922.1       0.9695
   TERMINAL TOTAL -2716.1 +j   -767.4     2822.4       0.9623

ELEMENT = "Line.sw2"
13       1       590.3 +j     62.2      593.6       0.9945
13       2       454.3 +j     -2.7      454.3      -1.0000
13       3       484.9 +j     -9.2      485.0      -0.9998
   TERMINAL TOTAL  1529.5 +j     50.3     1530.4       0.9995
152      1      -590.3 +j    -62.2      593.6       0.9945
152      2      -454.3 +j      2.7      454.3      -1.0000
152      3      -484.9 +j      9.2      485.0      -0.9998
   TERMINAL TOTAL -1529.5 +j    -50.3     1530.4       0.9995

ELEMENT = "Line.sw3"
18       1       215.5 +j    119.9      246.6       0.8738
18       2       208.3 +j    145.1      253.8       0.8206
18       3       152.2 +j     95.8      179.8       0.8463
   TERMINAL TOTAL   576.0 +j    360.8      679.6       0.8475
135      1      -215.5 +j   -119.9      246.6       0.8738
135      2      -208.3 +j   -145.1      253.8       0.8206
135      3      -152.2 +j    -95.8      179.8       0.8463
   TERMINAL TOTAL  -576.0 +j   -360.8      679.6       0.8475

ELEMENT = "Line.sw4"
60       1       429.0 +j    -46.0      431.5      -0.9943
60       2       320.8 +j    -78.3      330.2      -0.9715
60       3       347.5 +j    -80.2      356.7      -0.9744
   TERMINAL TOTAL  1097.4 +j   -204.4     1116.2      -0.9831
160      1      -429.0 +j     46.0      431.5      -0.9943
160      2      -320.8 +j     78.3      330.2      -0.9715
160      3      -347.5 +j     80.2      356.7      -0.9744
   TERMINAL TOTAL -1097.4 +j    204.4     1116.2      -0.9831

ELEMENT = "Line.sw5"
97       1       108.1 +j     54.5      121.0       0.8928
97       2        60.5 +j     30.3       67.7       0.8940
97       3        75.8 +j     38.0       84.8       0.8941
   TERMINAL TOTAL   244.4 +j    122.8      273.5       0.8935
197      1      -108.1 +j    -54.5      121.0       0.8928
197      2       -60.5 +j    -30.3       67.7       0.8940
197      3       -75.8 +j    -38.0       84.8       0.8941
   TERMINAL TOTAL  -244.4 +j   -122.8      273.5       0.8935

ELEMENT = "Line.sw6"
61       1         0.0 +j      0.0        0.0       0.0137
61       2         0.0 +j      0.0        0.0       0.0203
61       3         0.0 +j      0.0        0.0       0.0015
   TERMINAL TOTAL     0.0 +j      0.0        0.0       0.0119
61S      1        -0.0 +j     -0.0        0.0       0.0137
61S      2        -0.0 +j     -0.0        0.0       0.0203
61S      3        -0.0 +j     -0.0        0.0       0.0015
   TERMINAL TOTAL    -0.0 +j     -0.0        0.0       0.0119

ELEMENT = "Line.sw7"
151      1         0.0 +j     -0.0        0.0       1.0000
151      2        -0.0 +j      0.0        0.0       1.0000
151      3         0.0 +j      0.0        0.0       1.0000
   TERMINAL TOTAL     0.0 +j      0.0        0.0       1.0000
300_OPEN     1         0.0 +j     -0.0        0.0       1.0000
300_OPEN     2        -0.0 +j      0.0        0.0       1.0000
300_OPEN     3         0.0 +j      0.0        0.0       1.0000
   TERMINAL TOTAL     0.0 +j      0.0        0.0       1.0000

ELEMENT = "Line.sw8"
54       1         0.0 +j      0.0        0.0       1.0000
   TERMINAL TOTAL     0.0 +j      0.0        0.0       1.0000

ELEMENT = "Transformer.xfm1"
61S      1         0.0 +j      0.0        0.0       0.0053
61S      2        -0.0 +j      0.0        0.0      -0.0000
61S      3        -0.0 +j      0.0        0.0      -0.0051
61S      0         0.0 +j      0.0        0.0       1.0000
   TERMINAL TOTAL     0.0 +j      0.0        0.0       0.0000
610      1         0.0 +j     -0.0        0.0       1.0000
610      2         0.0 +j     -0.0        0.0      -0.8515
610      3        -0.0 +j      0.0        0.0      -0.4637
610      0         0.0 +j      0.0        0.0       1.0000
   TERMINAL TOTAL     0.0 +j      0.0        0.0       0.7275

ELEMENT = "Capacitor.c83"
83       1         0.0 +j   -215.3      215.3       1.0000
83       2         0.0 +j   -216.4      216.4       1.0000
83       3         0.0 +j   -214.5      214.5       1.0000
   TERMINAL TOTAL     0.0 +j   -646.2      646.2       1.0000
83       0        -0.0 +j      0.0        0.0       1.0000
83       0         0.0 +j     -0.0        0.0       1.0000
83       0         0.0 +j      0.0        0.0       1.0000
   TERMINAL TOTAL     0.0 +j      0.0        0.0       1.0000

ELEMENT = "Capacitor.c88a"
88       1        -0.0 +j    -53.1       53.1       0.0000
   TERMINAL TOTAL    -0.0 +j    -53.1       53.1       0.0000

ELEMENT = "Capacitor.c90b"
90       2         0.0 +j    -53.2       53.2       1.0000
   TERMINAL TOTAL     0.0 +j    -53.2       53.2       1.0000

ELEMENT = "Capacitor.c92c"
92       3         0.0 +j    -53.4       53.4       1.0000
   TERMINAL TOTAL     0.0 +j    -53.4       53.4       1.0000

ELEMENT = "Transformer.reg2a"
9        1        45.2 +j     22.6       50.5       0.8942
9        0         0.0 +j     -0.0        0.0       1.0000
   TERMINAL TOTAL    45.2 +j     22.6       50.5       0.8942
9R       1       -45.2 +j    -22.6       50.5       0.8942
9R       0         0.0 +j      0.0        0.0       1.0000
   TERMINAL TOTAL   -45.2 +j    -22.6       50.5       0.8942

ELEMENT = "Transformer.reg3a"
25       1        30.2 +j     15.1       33.8       0.8941
25       0         0.0 +j     -0.0        0.0       1.0000
   TERMINAL TOTAL    30.2 +j     15.1       33.8       0.8941
25R      1       -30.2 +j    -15.1       33.8       0.8941
25R      0         0.0 +j      0.0        0.0       1.0000
   TERMINAL TOTAL   -30.2 +j    -15.1       33.8       0.8941

ELEMENT = "Transformer.reg4a"
160      1       429.0 +j    -46.0      431.5      -0.9943
160      0        -0.0 +j      0.0        0.0       1.0000
   TERMINAL TOTAL   429.0 +j    -46.0      431.5      -0.9943
160R     1      -429.0 +j     46.0      431.5      -0.9943
160R     0         0.0 +j      0.0        0.0       1.0000
   TERMINAL TOTAL  -429.0 +j     46.0      431.5      -0.9943

ELEMENT = "Transformer.reg3c"
25       3        30.3 +j     15.1       33.8       0.8943
25       0         0.0 +j      0.0        0.0       1.0000
   TERMINAL TOTAL    30.3 +j     15.1       33.8       0.8943
25R      3       -30.3 +j    -15.1       33.8       0.8944
25R      0         0.0 +j     -0.0        0.0       1.0000
   TERMINAL TOTAL   -30.3 +j    -15.1       33.8       0.8944

ELEMENT = "Transformer.reg4b"
160      2       320.8 +j    -78.3      330.2      -0.9715
160      0         0.0 +j      0.0        0.0       1.0000
   TERMINAL TOTAL   320.8 +j    -78.3      330.2      -0.9715
160R     2      -320.8 +j     78.3      330.2      -0.9715
160R     0        -0.0 +j      0.0        0.0       1.0000
   TERMINAL TOTAL  -320.8 +j     78.3      330.2      -0.9715

ELEMENT = "Transformer.reg4c"
160      3       347.5 +j    -80.2      356.7      -0.9744
160      0         0.0 +j      0.0        0.0       1.0000
   TERMINAL TOTAL   347.5 +j    -80.2      356.7      -0.9744
160R     3      -347.5 +j     80.2      356.7      -0.9744
160R     0         0.0 +j     -0.0        0.0       1.0000
   TERMINAL TOTAL  -347.5 +j     80.2      356.7      -0.9744

= = = = = = = = = = = = = = = = = = =  = = = = = = = = = = =  = =

Power Conversion Elements

  Bus Phase     kW   +j  kvar         kVA         PF

ELEMENT = "Load.s1a"
1        1      30.2 +j   15.1       33.8       0.8944
1        0       0.0 +j   -0.0        0.0       1.0000
  TERMINAL TOTAL     30.2 +j     15.1       33.8       0.8944

ELEMENT = "Load.s2b"
2        2      15.1 +j    7.6       16.9       0.8944
2        0       0.0 +j    0.0        0.0       1.0000
  TERMINAL TOTAL     15.1 +j      7.6       16.9       0.8944

ELEMENT = "Load.s4c"
4        3      30.2 +j   15.1       33.8       0.8944
4        0       0.0 +j    0.0        0.0       1.0000
  TERMINAL TOTAL     30.2 +j     15.1       33.8       0.8944

ELEMENT = "Load.s5c"
5        3      15.5 +j    7.7       17.3       0.8944
5        0       0.0 +j    0.0        0.0       1.0000
  TERMINAL TOTAL     15.5 +j      7.7       17.3       0.8944

ELEMENT = "Load.s6c"
6        3      31.7 +j   15.8       35.4       0.8944
6        0       0.0 +j    0.0        0.0       1.0000
  TERMINAL TOTAL     31.7 +j     15.8       35.4       0.8944

ELEMENT = "Load.s7a"
7        1      15.1 +j    7.6       16.9       0.8944
7        0       0.0 +j   -0.0        0.0       1.0000
  TERMINAL TOTAL     15.1 +j      7.6       16.9       0.8944

ELEMENT = "Load.s9a"
9        1      30.2 +j   15.1       33.8       0.8944
9        0       0.0 +j   -0.0        0.0       1.0000
  TERMINAL TOTAL     30.2 +j     15.1       33.8       0.8944

ELEMENT = "Load.s10a"
10       1      15.1 +j    7.5       16.9       0.8944
10       0       0.0 +j   -0.0        0.0       1.0000
  TERMINAL TOTAL     15.1 +j      7.5       16.9       0.8944

ELEMENT = "Load.s11a"
11       1      30.1 +j   15.0       33.6       0.8944
11       0       0.0 +j   -0.0        0.0       1.0000
  TERMINAL TOTAL     30.1 +j     15.0       33.6       0.8944

ELEMENT = "Load.s12b"
12       2      15.1 +j    7.6       16.9       0.8944
12       0       0.0 +j    0.0        0.0       1.0000
  TERMINAL TOTAL     15.1 +j      7.6       16.9       0.8944

ELEMENT = "Load.s16c"
16       3      30.2 +j   15.1       33.8       0.8944
16       0       0.0 +j    0.0        0.0       1.0000
  TERMINAL TOTAL     30.2 +j     15.1       33.8       0.8944

ELEMENT = "Load.s17c"
17       3      15.1 +j    7.6       16.9       0.8944
17       0       0.0 +j    0.0        0.0       1.0000
  TERMINAL TOTAL     15.1 +j      7.6       16.9       0.8944

ELEMENT = "Load.s19a"
19       1      30.2 +j   15.1       33.8       0.8944
19       0       0.0 +j   -0.0        0.0       1.0000
  TERMINAL TOTAL     30.2 +j     15.1       33.8       0.8944

ELEMENT = "Load.s20a"
20       1      30.2 +j   15.1       33.8       0.8944
20       0       0.0 +j   -0.0        0.0       1.0000
  TERMINAL TOTAL     30.2 +j     15.1       33.8       0.8944

ELEMENT = "Load.s22b"
22       2      31.7 +j   15.8       35.4       0.8944
22       0       0.0 +j    0.0        0.0       1.0000
  TERMINAL TOTAL     31.7 +j     15.8       35.4       0.8944

ELEMENT = "Load.s24c"
24       3      30.2 +j   15.1       33.8       0.8944
24       0       0.0 +j    0.0        0.0       1.0000
  TERMINAL TOTAL     30.2 +j     15.1       33.8       0.8944

ELEMENT = "Load.s28a"
28       1      30.2 +j   15.1       33.8       0.8944
28       0       0.0 +j   -0.0        0.0       1.0000
  TERMINAL TOTAL     30.2 +j     15.1       33.8       0.8944

ELEMENT = "Load.s29a"
29       1      30.1 +j   15.1       33.7       0.8944
29       0       0.0 +j   -0.0        0.0       1.0000
  TERMINAL TOTAL     30.1 +j     15.1       33.7       0.8944

ELEMENT = "Load.s30c"
30       3      30.2 +j   15.1       33.8       0.8944
30       0       0.0 +j    0.0        0.0       1.0000
  TERMINAL TOTAL     30.2 +j     15.1       33.8       0.8944

ELEMENT = "Load.s31c"
31       3      15.1 +j    7.6       16.9       0.8944
31       0       0.0 +j    0.0        0.0       1.0000
  TERMINAL TOTAL     15.1 +j      7.6       16.9       0.8944

ELEMENT = "Load.s32c"
32       3      15.1 +j    7.6       16.9       0.8944
32       0       0.0 +j    0.0        0.0       1.0000
  TERMINAL TOTAL     15.1 +j      7.6       16.9       0.8944

ELEMENT = "Load.s33a"
33       1      30.2 +j   15.1       33.7       0.8944
33       0       0.0 +j   -0.0        0.0       1.0000
  TERMINAL TOTAL     30.2 +j     15.1       33.7       0.8944

ELEMENT = "Load.s34c"
34       3      31.1 +j   15.6       34.8       0.8944
34       0       0.0 +j    0.0        0.0       1.0000
  TERMINAL TOTAL     31.1 +j     15.6       34.8       0.8944

ELEMENT = "Load.s35a"
35       1      19.3 +j   -1.4       19.4      -0.9972
35       2      10.9 +j   16.6       19.8       0.5509
  TERMINAL TOTAL     30.2 +j     15.1       33.8       0.8944

ELEMENT = "Load.s37a"
37       1      30.0 +j   15.0       33.6       0.8944
37       0       0.0 +j   -0.0        0.0       1.0000
  TERMINAL TOTAL     30.0 +j     15.0       33.6       0.8944

ELEMENT = "Load.s38b"
38       2      15.5 +j    7.7       17.3       0.8944
38       0       0.0 +j    0.0        0.0       1.0000
  TERMINAL TOTAL     15.5 +j      7.7       17.3       0.8944

ELEMENT = "Load.s39b"
39       2      15.1 +j    7.6       16.9       0.8944
39       0       0.0 +j    0.0        0.0       1.0000
  TERMINAL TOTAL     15.1 +j      7.6       16.9       0.8944

ELEMENT = "Load.s41c"
41       3      15.1 +j    7.6       16.9       0.8944
41       0       0.0 +j    0.0        0.0       1.0000
  TERMINAL TOTAL     15.1 +j      7.6       16.9       0.8944

ELEMENT = "Load.s42a"
42       1      15.1 +j    7.6       16.9       0.8944
42       0       0.0 +j   -0.0        0.0       1.0000
  TERMINAL TOTAL     15.1 +j      7.6       16.9       0.8944

ELEMENT = "Load.s43b"
43       2      31.5 +j   15.7       35.2       0.8944
43       0       0.0 +j    0.0        0.0       1.0000
  TERMINAL TOTAL     31.5 +j     15.7       35.2       0.8944

ELEMENT = "Load.s45a"
45       1      15.0 +j    7.5       16.8       0.8944
45       0       0.0 +j   -0.0        0.0       1.0000
  TERMINAL TOTAL     15.0 +j      7.5       16.8       0.8944

ELEMENT = "Load.s46a"
46       1      15.1 +j    7.6       16.9       0.8944
46       0       0.0 +j   -0.0        0.0       1.0000
  TERMINAL TOTAL     15.1 +j      7.6       16.9       0.8944

ELEMENT = "Load.s47"
47       1      26.3 +j   18.8       32.3       0.8137
47       2      27.0 +j   19.3       33.1       0.8137
47       3      26.6 +j   19.0       32.7       0.8137
47       0       0.0 +j    0.0        0.0       1.0000
  TERMINAL TOTAL     79.8 +j     57.0       98.1       0.8137

ELEMENT = "Load.s48"
48       1      52.2 +j   37.3       64.1       0.8137
48       2      54.9 +j   39.2       67.5       0.8137
48       3      53.5 +j   38.2       65.7       0.8137
48       0       0.0 +j    0.0        0.0       1.0000
  TERMINAL TOTAL    160.6 +j    114.7      197.4       0.8137

ELEMENT = "Load.s49a"
49       1      26.5 +j   18.9       32.5       0.8137
49       0       0.0 +j   -0.0        0.0       1.0000
  TERMINAL TOTAL     26.5 +j     18.9       32.5       0.8137

ELEMENT = "Load.s49b"
49       2      52.9 +j   37.8       65.0       0.8137
49       0       0.0 +j    0.0        0.0       1.0000
  TERMINAL TOTAL     52.9 +j     37.8       65.0       0.8137

ELEMENT = "Load.s49c"
49       3      26.5 +j   15.1       30.5       0.8682
49       0      -0.0 +j    0.0        0.0       1.0000
  TERMINAL TOTAL     26.5 +j     15.1       30.5       0.8682

ELEMENT = "Load.s50c"
50       3      30.2 +j   15.1       33.8       0.8944
50       0       0.0 +j    0.0        0.0       1.0000
  TERMINAL TOTAL     30.2 +j     15.1       33.8       0.8944

ELEMENT = "Load.s51a"
51       1      15.1 +j    7.6       16.9       0.8944
51       0       0.0 +j   -0.0        0.0       1.0000
  TERMINAL TOTAL     15.1 +j      7.6       16.9       0.8944

ELEMENT = "Load.s52a"
52       1      30.2 +j   15.1       33.8       0.8944
52       0       0.0 +j   -0.0        0.0       1.0000
  TERMINAL TOTAL     30.2 +j     15.1       33.8       0.8944

ELEMENT = "Load.s53a"
53       1      30.2 +j   15.1       33.8       0.8944
53       0       0.0 +j   -0.0        0.0       1.0000
  TERMINAL TOTAL     30.2 +j     15.1       33.8       0.8944

ELEMENT = "Load.s55a"
55       1      15.1 +j    7.6       16.9       0.8944
55       0       0.0 +j   -0.0        0.0       1.0000
  TERMINAL TOTAL     15.1 +j      7.6       16.9       0.8944

ELEMENT = "Load.s56b"
56       2      15.1 +j    7.6       16.9       0.8944
56       0       0.0 +j    0.0        0.0       1.0000
  TERMINAL TOTAL     15.1 +j      7.6       16.9       0.8944

ELEMENT = "Load.s58b"
58       2      15.5 +j    7.7       17.3       0.8944
58       0       0.0 +j    0.0        0.0       1.0000
  TERMINAL TOTAL     15.5 +j      7.7       17.3       0.8944

ELEMENT = "Load.s59b"
59       2      15.1 +j    7.6       16.9       0.8944
59       0       0.0 +j    0.0        0.0       1.0000
  TERMINAL TOTAL     15.1 +j      7.6       16.9       0.8944

ELEMENT = "Load.s60a"
60       1      15.1 +j    7.6       16.9       0.8944
60       0       0.0 +j   -0.0        0.0       1.0000
  TERMINAL TOTAL     15.1 +j      7.6       16.9       0.8944

ELEMENT = "Load.s62c"
62       3      30.6 +j   15.3       34.2       0.8944
62       0       0.0 +j    0.0        0.0       1.0000
  TERMINAL TOTAL     30.6 +j     15.3       34.2       0.8944

ELEMENT = "Load.s63a"
63       1      30.2 +j   15.1       33.8       0.8944
63       0       0.0 +j   -0.0        0.0       1.0000
  TERMINAL TOTAL     30.2 +j     15.1       33.8       0.8944

ELEMENT = "Load.s64b"
64       2      57.8 +j   27.0       63.8       0.9062
64       0       0.0 +j    0.0        0.0       1.0000
  TERMINAL TOTAL     57.8 +j     27.0       63.8       0.9062

ELEMENT = "Load.s65a"
65       1      18.5 +j    1.5       18.6       0.9969
65       2       7.9 +j   17.4       19.1       0.4116
  TERMINAL TOTAL     26.4 +j     18.9       32.5       0.8137

ELEMENT = "Load.s65b"
65       2      19.2 +j    2.0       19.3       0.9946
65       3       7.8 +j   17.3       19.0       0.4117
  TERMINAL TOTAL     27.0 +j     19.3       33.2       0.8137

ELEMENT = "Load.s65c"
65       3      37.4 +j    4.0       37.6       0.9943
65       1      15.6 +j   33.8       37.3       0.4192
  TERMINAL TOTAL     53.0 +j     37.8       65.1       0.8137

ELEMENT = "Load.s66c"
66       3      56.7 +j   26.5       62.6       0.9062
66       0       0.0 +j    0.0        0.0       1.0000
  TERMINAL TOTAL     56.7 +j     26.5       62.6       0.9062

ELEMENT = "Load.s68a"
68       1      15.1 +j    7.6       16.9       0.8944
68       0       0.0 +j   -0.0        0.0       1.0000
  TERMINAL TOTAL     15.1 +j      7.6       16.9       0.8944

ELEMENT = "Load.s69a"
69       1      30.2 +j   15.1       33.8       0.8944
69       0       0.0 +j   -0.0        0.0       1.0000
  TERMINAL TOTAL     30.2 +j     15.1       33.8       0.8944

ELEMENT = "Load.s70a"
70       1      15.1 +j    7.6       16.9       0.8944
70       0       0.0 +j   -0.0        0.0       1.0000
  TERMINAL TOTAL     15.1 +j      7.6       16.9       0.8944

ELEMENT = "Load.s71a"
71       1      30.2 +j   15.1       33.8       0.8944
71       0       0.0 +j   -0.0        0.0       1.0000
  TERMINAL TOTAL     30.2 +j     15.1       33.8       0.8944

ELEMENT = "Load.s73c"
73       3      30.2 +j   15.1       33.8       0.8944
73       0       0.0 +j    0.0        0.0       1.0000
  TERMINAL TOTAL     30.2 +j     15.1       33.8       0.8944

ELEMENT = "Load.s74c"
74       3      32.0 +j   16.0       35.7       0.8944
74       0       0.0 +j    0.0        0.0       1.0000
  TERMINAL TOTAL     32.0 +j     16.0       35.7       0.8944

ELEMENT = "Load.s75c"
75       3      30.2 +j   15.1       33.8       0.8944
75       0       0.0 +j    0.0        0.0       1.0000
  TERMINAL TOTAL     30.2 +j     15.1       33.8       0.8944

ELEMENT = "Load.s76a"
...